//
//
#1 "nosuchfile.sp" 1
simulator lang=spectre version=2.0 
local __cds_internal_stub_node__
ahdl_include "xcelium.d/AMSD/ahdlSimDB/worklib__nmos_mod__vams__0x10000001_behavioral.flex.va"
ahdl_include "xcelium.d/AMSD/ahdlSimDB/worklib__tb__vams__0x10000001_behavioral.flex.va"

#5 "/home/alpha/Documents/nidhi_wreal/nmos.vams;AMS:8"
simulator lang=spectre version=2.0 binding=vlog insensitive=no
subckt worklib__nmos_mod__vams__0x10000001 vin(vin) vout(vout) vdd(vdd)
local vdd
local vin
local vout

#9 "/home/alpha/Documents/nidhi_wreal/nmos.vams;AMS:8"
parameters gnd=0
parameters termcurs=0

#5 "/home/alpha/Documents/nidhi_wreal/nmos.vams;AMS:8"
_cds_internal_nmos_mod_ (vin vout vdd) worklib__nmos_mod__vams__0x10000001_behavioral gnd=gnd
ends


#5 "/home/alpha/Documents/nidhi_wreal/noms_tb.vams;AMS:8"
simulator lang=spectre version=2.0 binding=vlog insensitive=no
subckt worklib__tb__vams__0x10000001 
local vdd
local vin
local vout
parameters termcurs=0

#11 "/home/alpha/Documents/nidhi_wreal/noms_tb.vams;AMS:8"
NM (vin vout vdd) worklib__nmos_mod__vams__0x10000001 

#5 "/home/alpha/Documents/nidhi_wreal/noms_tb.vams;AMS:8"
_cds_internal_tb_ (vin vdd) worklib__tb__vams__0x10000001_behavioral 
ends

simulator lang=spectre version=2.0 insensitive=no
tb  worklib__tb__vams__0x10000001 
//
//
#1 "nosuchfile.sp" 1
simulator lang=spectre version=2.0 
include "sim.scs"
