//
//
#1 "nosuchfile.sp" 1
simulator lang=spectre version=2.0 
local __cds_internal_stub_node__
ahdl_include "xcelium.d/AMSD/ahdlSimDB/worklib__resistor__vams__0x10000001_behavioral.flex.va"
ahdl_include "xcelium.d/AMSD/ahdlSimDB/worklib__capacitor__vams__0x10000001_behavioral.flex.va"
ahdl_include "xcelium.d/AMSD/ahdlSimDB/worklib__rc_filter__vams__0x10000001_behavioral.flex.va"

#4 "/home/alpha/Documents/nidhi_wreal/RC_filter/resistor.vams;AMS:8"
simulator lang=spectre version=2.0 binding=vlog insensitive=no
subckt worklib__resistor__vams__0x10000001 p(p) n(n)
local n
local p

#8 "/home/alpha/Documents/nidhi_wreal/RC_filter/resistor.vams;AMS:8"
parameters R=1
parameters termcurs=0

#4 "/home/alpha/Documents/nidhi_wreal/RC_filter/resistor.vams;AMS:8"
_cds_internal_resistor_ (p n) worklib__resistor__vams__0x10000001_behavioral R=R
ends

simulator lang=spectre version=2.0 insensitive=no
resistor (p n) worklib__resistor__vams__0x10000001 

#3 "/home/alpha/Documents/nidhi_wreal/RC_filter/capacitor.vams;AMS:8"
simulator lang=spectre version=2.0 binding=vlog insensitive=no
subckt worklib__capacitor__vams__0x10000001 p(p) n(n)
local n
local p

#8 "/home/alpha/Documents/nidhi_wreal/RC_filter/capacitor.vams;AMS:8"
parameters C=1
parameters termcurs=0

#3 "/home/alpha/Documents/nidhi_wreal/RC_filter/capacitor.vams;AMS:8"
_cds_internal_capacitor_ (p n) worklib__capacitor__vams__0x10000001_behavioral C=C
ends

simulator lang=spectre version=2.0 insensitive=no
capacitor (p n) worklib__capacitor__vams__0x10000001 

#6 "/home/alpha/Documents/nidhi_wreal/RC_filter/rc_filter.vams;AMS:8"
simulator lang=spectre version=2.0 binding=vlog insensitive=no
subckt worklib__rc_filter__vams__0x10000001 v1(v1) v2(v2) vout(vout)
local v1
local v2
local vout

#15 "/home/alpha/Documents/nidhi_wreal/RC_filter/rc_filter.vams;AMS:8"
parameters Rf=10

#16 "/home/alpha/Documents/nidhi_wreal/RC_filter/rc_filter.vams;AMS:8"
parameters Cf=1e-06
parameters termcurs=0

#18 "/home/alpha/Documents/nidhi_wreal/RC_filter/rc_filter.vams;AMS:8"
reg1 (p=v2 n=vout) resistor 

#21 "/home/alpha/Documents/nidhi_wreal/RC_filter/rc_filter.vams;AMS:8"
Cap1 (p=v1 n=v2) capacitor 

#6 "/home/alpha/Documents/nidhi_wreal/RC_filter/rc_filter.vams;AMS:8"
_cds_internal_rc_filter_ (v2 vout) worklib__rc_filter__vams__0x10000001_behavioral Cf=Cf Rf=Rf
ends

simulator lang=spectre version=2.0 insensitive=no
rc_filter (v1 v2 vout) worklib__rc_filter__vams__0x10000001 
//
//
#1 "nosuchfile.sp" 1
simulator lang=spectre version=2.0 
include "../sim.scs"
